#QM CODE
qm_code=mndo          #mndo, orca
QMatom=24             # Number of QM atoms
hamiltonian="mndo"    # QM method
basis="cc-pVDZ"
charge=0
mult=1

#CHEMSHELL
embedding="shift"      #shift for electrostatic embedding
types_qm_atoms="nx nx cx cx cx cx cx cx cx hx hx hx hx hx cx cx cx cx cx hx hx hx hx hx"
types_mm_atoms="c o h h h ho"
##################### CONNECTIVITY ######################
# Definition of connectivity in MM subunit.
# User can also create conn.dat file for whole system and this will be ignored in that case. File conn.dat has to include the head line with number of connections. See manual or predefined geom.c file.
cat > unit_conn.dat << EOF
1 2
1 3
1 4
1 5
2 6
EOF

##################### NON-BONDED PARAMETERS FOR QM ATOMS ######################
# Every row represents one atom type and its epsilon and sigma parameters.
# Here units of kJ/mol and nm are expected.
# These parameters will be transformed and added to dl_poly input file ff.dat. Pair rules will be applied on them and on those found in ff.dat.
# THIS INTERFACE USES AN EXAMPLE OF AZOBENZENE IN METHANOL FROM OPLS-FF
cat > non_bonded.dat << EOF
nx 0.71128  0.325
cx 0.276144 0.35
hx 0.12552  0.25
EOF

##################### FORCE FIELD PARAMETERS FOR MM ATOMS ######################
cat >> ff.dat << EOF
declare ho
charge  c   +.145
charge  h   +.04
charge  o   -.683
charge  ho  +.418
charge  n   -.460
vdw    c c    485.30      892114.23
vdw    h h    29.30      7152.56
vdw    o o    627.24      578580.84
vdw    ho ho   0.0        0.0
vdw    n  n   801.33      944298.39
EOF


#on PHOTOX clusers source required programs. Otherwise set variables CHEMSHELLEXE, ORCAEXE or MNDOEXE
source SetEnvironment.sh CHEMSHELL
if [ "$qm_code" == "mndo" ]; then
    source SetEnvironment.sh MNDO
elif [ "$qm_code" == "orca" ]; then    
    source SetEnvironment.sh ORCA 5.0.3
fi
